****** HSPICE -- M-2017.03-SP1 linux64 (May 22 2017) ******
 Input File: test_INV1.sp
 lic:
 lic: FLEXlm: SDK_11.6.4
 lic: USER:   rjridle              HOSTNAME: okita.ecen.okstate.edu
 lic: HOSTID: 0c9d92c24248         PID:      15398
 lic: Using FLEXlm license file:
 lic: 27020@trelaina
 lic: Checkout 1 hspice
 lic: License/Maintenance for hspice will expire on 27-jan-2022/2020.12
 lic: 1(in_use)/50(total) FLOATING license(s) on SERVER 27020@trelaina
 lic:
 init: begin read circuit files, cpu clock= 3.00E-01
       option search = /import/synopsys/M-2017.06/hspice/hspice/parts/a
                         d
       option search = /import/synopsys/M-2017.06/hspice/hspice/parts/b
                         ehave
       option search = /import/synopsys/M-2017.06/hspice/hspice/parts/c
                         omlinear
       option search = /import/synopsys/M-2017.06/hspice/hspice/parts/d
                         io
       option search = /import/synopsys/M-2017.06/hspice/hspice/parts/f
                         et
       option search = /import/synopsys/M-2017.06/hspice/hspice/parts/l
                         in_tech
       option search = /import/synopsys/M-2017.06/hspice/hspice/parts/p
                         ci
       option search = /import/synopsys/M-2017.06/hspice/hspice/parts/s
                         ignet
       option search = /import/synopsys/M-2017.06/hspice/hspice/parts/t
                         i
       option search = /import/synopsys/M-2017.06/hspice/hspice/parts/x
                         ilinx
       option runlvl
       option post
       option captab
       option node
       option redefsub
 init: end read circuit files, cpu clock= 3.70E-01 peak memory=     262 mb
 init: begin check errors, cpu clock= 3.70E-01
 init: end check errors, cpu clock= 3.80E-01 peak memory=     262 mb
 init: begin setup matrix, pivot=     0 cpu clock= 3.80E-01
       establish matrix -- done, cpu clock= 3.80E-01 peak memory=     262 mb
       re-order matrix -- done, cpu clock= 3.80E-01 peak memory=     262 mb
 init: end setup matrix, cpu clock= 3.80E-01 peak memory=     262 mb
 dcop: begin dcop, cpu clock= 3.80E-01
 dcop: end dcop, cpu clock= 3.80E-01 peak memory=     262 mb tot_iter=       4
 output: test_INV1.tr0
 sweep: tran tran0    begin, stop_t=  5.00E-09 #sweeps=5001 cpu clock= 3.80E-01
 tran: time= 6.5307E-10 tot_iter=      14 conv_iter=       7 cpu clock= 3.80E-01
 tran: time= 1.0000E-09 tot_iter=      18 conv_iter=       9 cpu clock= 3.80E-01
 tran: time= 1.5154E-09 tot_iter=      38 conv_iter=      17 cpu clock= 3.80E-01
 tran: time= 2.0000E-09 tot_iter=      65 conv_iter=      27 cpu clock= 3.80E-01
 tran: time= 2.5296E-09 tot_iter=      79 conv_iter=      34 cpu clock= 3.80E-01
 tran: time= 3.0000E-09 tot_iter=      83 conv_iter=      36 cpu clock= 3.80E-01
 tran: time= 3.6226E-09 tot_iter=      97 conv_iter=      43 cpu clock= 3.80E-01
 tran: time= 4.0000E-09 tot_iter=     130 conv_iter=      53 cpu clock= 3.80E-01
 tran: time= 4.7055E-09 tot_iter=     146 conv_iter=      61 cpu clock= 3.80E-01
 tran: time= 5.0000E-09 tot_iter=     150 conv_iter=      63 cpu clock= 3.80E-01
 sweep: tran tran0    end, cpu clock= 3.80E-01 peak memory=     262 mb
>info:         ***** hspice job concluded
 lic: Release hspice token(s)
